units(length='cm', time='s', quantity='mol', act_energy='kcal/mol')

ideal_gas(name='gas',
          elements="H D T C Ci O Oi N Ne Ar He Si S F Cl Br I X",
          species="""CO     CO2    H2O    CH3OH  CH2O   H2""",
          initial_state=state(temperature=300.0, pressure=OneAtm))

ideal_interface(name='surface1',
                elements="H D T C Ci O Oi N Ne Ar He Si S F Cl Br I X",
                species="""COX      CO2X     HX       H2OX     CH4OX    OX
                          HOX      CHOX     CHO2X2   CH2O2X2  CHO2X    CH2OX
                          CH3OX    CH3O2X   *""",
                site_density=2.72e-09,
                phases="gas",
          reactions='all',
                initial_state=state(temperature=300.0, pressure=OneAtm))

#-------------------------------------------------------------------------------
# Element data
#-------------------------------------------------------------------------------

element(symbol='Ci', atomic_mass=13.003)
element(symbol='D', atomic_mass=2.014)
element(symbol='Oi', atomic_mass=17.999)
element(symbol='T', atomic_mass=3.016)
element(symbol='X', atomic_mass=195.083)
#-------------------------------------------------------------------------------
# Species data
#-------------------------------------------------------------------------------

species(name='CO',
        atoms='C:1 O:1',
        thermo=(NASA([298.00, 789.09],
                     [ 3.66154342E+00, -1.43504647E-03,  3.67302905E-06,
                      -2.49434692E-09,  5.48117748E-13, -1.42948524E+04,
                       3.17725651E+00]),
                NASA([789.09, 1500.00],
                     [ 3.33077803E+00, -2.29201733E-05,  1.49160406E-06,
                      -1.07625202E-09,  2.33450537E-13, -1.42344149E+04,
                       4.74685008E+00])))

species(name='CO2',
        atoms='C:1 O:2',
        thermo=(NASA([298.00, 683.85],
                     [ 2.40165442E+00,  8.41598833E-03, -5.21299389E-06,
                      -1.72526023E-10,  1.11981183E-12, -4.83059063E+04,
                       9.73975977E+00]),
                NASA([683.85, 1500.00],
                     [ 2.44833975E+00,  8.73873929E-03, -7.22784591E-06,
                       3.06575919E-09, -5.29795883E-13, -4.83262235E+04,
                       9.43040726E+00])))

species(name='H2O',
        atoms='H:2 O:1',
        thermo=(NASA([298.00, 783.08],
                     [ 4.13633207E+00, -1.29673655E-03,  3.97067697E-06,
                      -2.32064675E-09,  4.22189827E-13, -3.02902451E+04,
                      -6.48186651E-01]),
                NASA([783.08, 1500.00],
                     [ 3.89679266E+00, -3.18978328E-04,  2.56863689E-06,
                      -1.52790576E-09,  2.97084911E-13, -3.02451925E+04,
                       4.97003851E-01])))

species(name='CH3OH',
        atoms='C:1 H:4 O:1',
        thermo=(NASA([298.00, 746.00],
                     [ 3.71166510E+00,  1.96603724E-03,  1.89608778E-05,
                      -2.15221881E-08,  7.53561837E-12, -2.55919906E+04,
                       6.48628028E+00]),
                NASA([746.00, 1500.00],
                     [ 1.46211192E+00,  1.40147774E-02, -5.23925552E-06,
                       8.06515655E-11,  3.04013819E-13, -2.52559898E+04,
                       1.66823513E+01])))

species(name='CH2O',
        atoms='C:1 H:2 O:1',
        thermo=(NASA([298.00, 815.79],
                     [ 4.32490446E+00, -5.66785968E-03,  2.48296746E-05,
                      -2.36134153E-08,  7.51429112E-12, -1.44478206E+04,
                       2.42376041E+00]),
                NASA([815.79, 1500.00],
                     [ 1.30854609E+00,  9.14598856E-03, -2.45275106E-06,
                      -1.28209382E-09,  6.59787508E-13, -1.39564752E+04,
                       1.63569315E+01])))

species(name='H2',
        atoms='H:2',
        thermo=(NASA([298.00, 735.97],
                     [ 2.88861423E+00,  3.91344958E-03, -8.98628825E-06,
                       8.95399502E-09, -3.15133154E-12, -9.71474174E+02,
                      -1.57963816E+00]),
                NASA([735.97, 1500.00],
                     [ 3.81856270E+00, -1.13983256E-03,  1.31091916E-06,
                      -3.71735009E-10,  1.58828987E-14, -1.10838386E+03,
                      -5.78119391E+00])))

species(name='COX',
        atoms='C:1 O:1 X:1',
        thermo=(NASA([298.00, 486.18],
                     [ 1.44889612E+00,  2.03117050E-02, -5.18488239E-05,
                       6.73954841E-08, -3.41299700E-11, -2.24305593E+04,
                      -7.89434492E+00]),
                NASA([486.18, 1500.00],
                     [ 3.35137074E+00,  4.67007799E-03, -3.62340080E-06,
                       1.31283461E-09, -1.72923202E-13, -2.26156760E+04,
                      -1.57019786E+01])))

species(name='CO2X',
        atoms='C:1 O:2 X:1',
        thermo=(NASA([298.00, 486.54],
                     [ 1.22106792E+00,  2.41676501E-02, -5.56552757E-05,
                       6.99276199E-08, -3.50187703E-11, -4.87916002E+04,
                       1.78998936E+00]),
                NASA([486.54, 1500.00],
                     [ 3.17132388E+00,  8.14894158E-03, -6.31583016E-06,
                       2.38496540E-09, -3.45654910E-13, -4.89815529E+04,
                      -6.21565369E+00])))

species(name='HX',
        atoms='H:1 X:1',
        thermo=(NASA([298.00, 732.61],
                     [-1.44918426E+00,  1.29025610E-02, -1.48039764E-05,
                       6.76679929E-09, -6.47451942E-13, -1.51499206E+03,
                       5.52756382E+00]),
                NASA([732.61, 1500.00],
                     [-5.50066970E-01,  9.36699371E-03, -1.03773042E-05,
                       5.29774869E-09, -1.01945061E-12, -1.68359296E+03,
                       1.21802630E+00])))

species(name='H2OX',
        atoms='H:2 O:1 X:1',
        thermo=(NASA([298.00, 582.91],
                     [ 1.99874220E+00,  1.41221540E-02, -2.86383968E-05,
                       3.09344700E-08, -1.29471541E-11, -3.21878057E+04,
                      -3.19331525E+00]),
                NASA([582.91, 1500.00],
                     [ 3.45953609E+00,  4.09976625E-03, -2.85235303E-06,
                       1.44848107E-09, -3.03344874E-13, -3.23581379E+04,
                      -9.45263441E+00])))

species(name='CH4OX',
        atoms='C:1 H:4 O:1 X:1',
        thermo=(NASA([298.00, 709.24],
                     [ 2.50136925E+00,  1.16438117E-02,  5.94475469E-06,
                      -1.37239105E-08,  5.85176240E-12, -2.77545656E+04,
                      -3.63766598E+00]),
                NASA([709.24, 1500.00],
                     [ 8.40624152E-01,  2.10094469E-02, -1.38615186E-05,
                       4.89206388E-09, -7.09690952E-13, -2.75189746E+04,
                       3.80402566E+00])))

species(name='OX',
        atoms='O:1 X:1',
        thermo=(NASA([298.00, 652.87],
                     [-5.52331271E-02,  1.45939540E-02, -2.93589677E-05,
                       2.78210293E-08, -1.02152756E-11, -2.69079554E+04,
                      -1.27959208E+00]),
                NASA([652.87, 1500.00],
                     [ 1.70998877E+00,  3.77913558E-03, -4.51216993E-06,
                       2.44994084E-09, -5.00359862E-13, -2.71384546E+04,
                      -9.04317117E+00])))

species(name='HOX',
        atoms='H:1 O:1 X:1',
        thermo=(NASA([298.00, 646.25],
                     [ 6.31497316E-01,  2.10837452E-02, -4.35223108E-05,
                       4.25031482E-08, -1.59104318E-11, -3.24961130E+04,
                      -3.87549641E+00]),
                NASA([646.25, 1500.00],
                     [ 3.28671204E+00,  4.64844802E-03, -5.37299595E-06,
                       3.14692584E-09, -6.84939835E-13, -3.28392849E+04,
                      -1.55260756E+01])))

species(name='CHOX',
        atoms='C:1 H:1 O:1 X:1',
        thermo=(NASA([298.00, 491.86],
                     [ 9.29156356E-01,  2.22482423E-02, -4.36531365E-05,
                       5.13015197E-08, -2.49471473E-11, -1.01285891E+04,
                      -1.93488885E+00]),
                NASA([491.86, 1500.00],
                     [ 2.36471158E+00,  1.05821045E-02, -8.10102970E-06,
                       3.14879857E-09, -4.89911765E-13, -1.02699087E+04,
                      -7.84302733E+00])))

species(name='CHO2X2',
        atoms='C:1 H:1 O:2 X:2',
        thermo=(NASA([298.00, 707.94],
                     [ 3.55359843E-01,  3.00087861E-02, -4.30764335E-05,
                       3.33273386E-08, -1.06473352E-11, -4.81486570E+04,
                       4.39029688E+00]),
                NASA([707.94, 1500.00],
                     [ 2.72945625E+00,  1.65944191E-02, -1.46532129E-05,
                       6.56069805E-09, -1.19485631E-12, -4.84847942E+04,
                      -6.24329736E+00])),
        size=2.0)

species(name='CH2O2X2',
        atoms='C:1 H:2 O:2 X:2',
        thermo=(NASA([298.00, 767.28],
                     [ 1.34677179E+01, -5.81815940E-02,  1.50488033E-04,
                      -1.39539202E-07,  4.58360621E-11, -3.86023280E+04,
                      -4.99206061E+01]),
                NASA([767.28, 1500.00],
                     [-1.79253945E+00,  2.13725347E-02, -5.03504991E-06,
                      -4.41147541E-09,  1.80842759E-12, -3.62605216E+04,
                       1.96590037E+01])),
        size=2.0)

species(name='CHO2X',
        atoms='C:1 H:1 O:2 X:1',
        thermo=(NASA([298.00, 683.24],
                     [ 7.60216745E-02,  2.73976959E-02, -3.78822319E-05,
                       2.86220178E-08, -9.08494653E-12, -4.10101179E+04,
                       4.95912177E+00]),
                NASA([683.24, 1500.00],
                     [ 1.74733310E+00,  1.76133763E-02, -1.64021890E-05,
                       7.66366513E-09, -1.41644678E-12, -4.12385063E+04,
                      -2.46742384E+00])))

species(name='CH2OX',
        atoms='C:1 H:2 O:1 X:1',
        thermo=(NASA([298.00, 709.91],
                     [ 4.60317039E+00, -1.55096450E-03,  1.62737960E-05,
                      -1.52842020E-08,  4.33366635E-12, -1.53457635E+04,
                      -9.86979636E+00]),
                NASA([709.91, 1500.00],
                     [ 2.11211976E+00,  1.04969945E-02, -4.98249095E-06,
                       7.32735606E-10,  8.22977775E-14, -1.49419871E+04,
                       1.64741395E+00])))

species(name='CH3OX',
        atoms='C:1 H:3 O:1 X:1',
        thermo=(NASA([298.00, 675.14],
                     [ 2.61620375E+00,  1.25118104E-02, -9.78423985E-07,
                      -4.96061573E-09,  2.06898300E-12, -2.49663562E+04,
                      -1.03883534E+01]),
                NASA([675.14, 1500.00],
                     [ 1.41813512E+00,  1.86631229E-02, -1.25414240E-05,
                       4.37991285E-09, -6.20523557E-13, -2.47830033E+04,
                      -4.91918917E+00])))

species(name='CH3O2X',
        atoms='C:1 H:3 O:2 X:1',
        thermo=(NASA([298.00, 724.04],
                     [-1.56496683E+00,  4.05305511E-02, -4.41320319E-05,
                       2.23355171E-08, -3.48943865E-12, -4.67959132E+04,
                       1.39970078E+01]),
                NASA([724.04, 1500.00],
                     [ 1.35014577E+00,  2.79745951E-02, -2.54717602E-05,
                       1.19233658E-08, -2.23168847E-12, -4.73110630E+04,
                       2.32232321E-01])))

species(name='*',
        atoms='X:1',
        thermo=(NASA([298.00, 910.15],
                     [ 2.50988549E-03, -1.59892146E-05,  3.47105179E-08,
                      -3.06739532E-11,  9.39725820E-15, -2.88123092E-01,
                      -1.08234288E-02]),
                NASA([910.15, 1500.00],
                     [-3.50856562E-03,  9.49667609E-06, -5.70271259E-09,
                      -2.23640042E-12,  1.90585275E-15,  8.47362588E-01,
                       1.78649607E-02])))

#-------------------------------------------------------------------------------
# Reaction data
#-------------------------------------------------------------------------------
#  Reaction index: Chemkin #1; RMG #-1

# surface1 Reaction 1
surface_reaction('CO + * <=> COX', stick(1.000000e+00, 0.0, 0.0))
#  Reaction index: Chemkin #2; RMG #-1

# surface1 Reaction 2
surface_reaction('CO2 + * <=> CO2X', stick(1.000000e+00, 0.0, 0.0))
#  Reaction index: Chemkin #3; RMG #-1

# surface1 Reaction 3
surface_reaction('H2 + * + * <=> HX + HX', stick(1.000000e+00, 0.0, 0.0))
#  Reaction index: Chemkin #4; RMG #-1

# surface1 Reaction 4
surface_reaction('H2O + * <=> H2OX', stick(1.000000e+00, 0.0, 0.0))
#  Reaction index: Chemkin #5; RMG #-1

# surface1 Reaction 5
surface_reaction('CH2O + * <=> CH2OX', stick(1.000000e+00, 0.0, 0.0))
#  Reaction index: Chemkin #6; RMG #-1

# surface1 Reaction 6
surface_reaction('CH3OH + * <=> CH4OX', stick(1.000000e+00, 0.0, 0.0))
#  Reaction index: Chemkin #7; RMG #-1

# surface1 Reaction 7
surface_reaction('COX + OX <=> CO2X + *', [1.301393e+25, 0.0, 12.161])
#  Reaction index: Chemkin #8; RMG #-1

# surface1 Reaction 8
surface_reaction('COX + HOX <=> CHO2X + *', [3.397893e+28, 0.0, 8.489])
#  Reaction index: Chemkin #9; RMG #-1

# surface1 Reaction 9
surface_reaction('CO2X + HX <=> CHO2X + *', [3.397893e+30, 0.0, 0.0])
#  Reaction index: Chemkin #10; RMG #-1

# surface1 Reaction 10
surface_reaction('CO2X + H2OX <=> CHO2X + HOX', [3.397893e+26, 0.0, 17.897])
#  Reaction index: Chemkin #11; RMG #-1

# surface1 Reaction 11
surface_reaction('H2OX + * <=> HOX + HX', [2.062521e+20, 0.0, 18.585])
#  Reaction index: Chemkin #12; RMG #-1

# surface1 Reaction 12
surface_reaction('HOX + * <=> OX + HX', [2.983350e+26, 0.0, 26.845])
#  Reaction index: Chemkin #13; RMG #-1

# surface1 Reaction 13
surface_reaction('HOX + HOX <=> H2OX + HX', [5.334692e+19, 0.0, 13.996])
#  Reaction index: Chemkin #14; RMG #-1

# surface1 Reaction 14
surface_reaction('CO2X + HX <=> CHO2X2', [3.397893e+30, 0.0, 0.0])
#  Reaction index: Chemkin #15; RMG #-1

# surface1 Reaction 15
surface_reaction('CHO2X2 + HX <=> CH2O2X2 + * + *', [1.077132e+27, 0.0, 25.01])
#  Reaction index: Chemkin #16; RMG #-1

# surface1 Reaction 16
surface_reaction('CH2O2X2 + HX <=> CH3O2X + *', [6.591913e+25, 0.0, 14.685])
#  Reaction index: Chemkin #17; RMG #-1

# surface1 Reaction 17
surface_reaction('CH2O2X2 + * <=> CH2OX + OX', [4.009514e+25, 0.0, 0.0])
#  Reaction index: Chemkin #18; RMG #-1

# surface1 Reaction 18
surface_reaction('CH3O2X + * <=> CH2OX + HOX', [2.606184e+21, 0.0, 14.914])
#  Reaction index: Chemkin #19; RMG #-1

# surface1 Reaction 19
surface_reaction('CH2OX + HX <=> CH3OX + *', [3.397893e+30, 0.0, 0.0])
#  Reaction index: Chemkin #20; RMG #-1

# surface1 Reaction 20
surface_reaction('CH3OX + HX <=> CH4OX + *', [6.591913e+19, 0.0, 25.01])
#  Reaction index: Chemkin #21; RMG #-1

# surface1 Reaction 21
surface_reaction('COX + HX <=> CHOX + *', [1.753313e+16, 0.0, 16.52])
#  Reaction index: Chemkin #22; RMG #-1

# surface1 Reaction 22
surface_reaction('CHO2X2 <=> CHOX + OX', [6.693850e+18, 0.0, 47.725])
#  Reaction index: Chemkin #23; RMG #-1

# surface1 Reaction 23
surface_reaction('CHOX + HX <=> CH2OX + *', [1.464492e+22, 0.0, 4.359])
#  Reaction index: Chemkin #24; RMG #-1

# surface1 Reaction 24
surface_reaction('COX + HOX <=> CHOX + OX', [2.769283e+21, 0.0, 33.27])
#  Reaction index: Chemkin #25; RMG #-1

# surface1 Reaction 25
surface_reaction('COX + H2OX <=> CHOX + HOX', [7.067618e+27, 0.0, 22.486])
#  Reaction index: Chemkin #26; RMG #-1

# surface1 Reaction 26
surface_reaction('CH3OX + COX <=> CH2OX + *', [3.397893e+30, 0.0, 39.006])
#  Reaction index: Chemkin #27; RMG #-1

# surface1 Reaction 27
surface_reaction('CH3OX + CHOX <=> CH4OX + COX', [4.451240e+10, 0.0, 0.0])
#  Reaction index: Chemkin #28; RMG #-1

# surface1 Reaction 28
surface_reaction('CH3O2X + HX <=> CH2OX + H2OX', [3.397893e+30, 0.0, 0.0])
