ELEM
H
C
O
X /63.546/
END

SPECIES
CH2O
CH3OH
CO
CO2
H2
H2O
HCOOCH3
HCOOH
END

THERMO

!!!!!!!!!!!!!!!!!!!!!!!!!!!!!!!!!!!!!!!!!!!!!!!!!!!!!!
!This is from the original Input file
!!!!!!!!!!!!!!!!!!!!!!!!!!!!!!!!!!!!!!!!!!!!!!!!!!!!!!
! they don't give a low/high range. is it ok to just use the same values for both? 
!Species    ∆H0 [kJ/mol] S0 [J/mol/K]     A          B           C          D        E           F         G       H
!H2           -3032.90    134.66       29.91936   -2.35028     1.54743   0.57934  -0.02578   -3041.82  171.35   -3032.90
!CO          -57015.02    202.05       27.01916    0.39882    10.80028  -5.39747   0.11318  -57022.80  234.83  -57015.02
!CO2         -99310.40    218.57       27.72336   48.60556   -28.93575   6.74397  -0.18280  -99321.19  237.82  -99310.40
!H2O         -45229.41    189.11       28.05552   14.46211    -2.99413   1.07386   0.12203  -45237.98  219.56  -45229.41
!CH2O        -60097.98    218.88        3.04758  101.92105   -56.26415  12.54532   0.62240  -60100.85  198.06  -60097.98
!HCOOH      -102344.61    251.48       15.84489  143.98941  -105.96425  31.14424  -0.14154 -102355.33  231.37 -102344.61
!CH3OH       -63234.62    241.84       10.49452  153.59317   -92.85784  24.06304   0.19502  -63243.14  213.77  -63234.62
!HCOOCH3    -120355.88    290.69        0.11567  266.94426  -176.86514  47.09685   0.38750 -120365.01  220.88 -120355.88

!!!!!!!!!!!!!!!!!!!!!!!!!!!!!!!!!!!!!!!!!!!!!!!!!!!!!!
!For now, I am using our RMG thermo values
!!!!!!!!!!!!!!!!!!!!!!!!!!!!!!!!!!!!!!!!!!!!!!!!!!!!!!

! Thermo library: primaryThermoLibrary
H2                      H   2               G   100.000  5000.000 1959.08      1
 2.78816583E+00 5.87640942E-04 1.59010417E-07-5.52739026E-11 4.34310984E-15    2
-5.96144270E+02 1.12732655E-01 3.43536412E+00 2.12710353E-04-2.78625043E-07    3
 3.40267167E-10-7.76031998E-14-1.03135984E+03-3.90841732E+00                   4

! Thermo library: thermo_DFT_CCSDTF12_BAC
CO                      C   1O   1          G   100.000  5000.000 1571.63      1
 2.91305202E+00 1.64659937E-03-6.88625686E-07 1.21039677E-10-7.84035796E-15    2
-1.41808768E+04 6.71054299E+00 3.56838038E+00-8.52129500E-04 2.48918819E-06    3
-1.56331996E-09 3.13598127E-13-1.42842550E+04 3.57912028E+00                   4

! Thermo library: thermo_DFT_CCSDTF12_BAC
CO2                     C   1O   2          G   100.000  5000.000  978.21      1
 4.67426743E+00 2.60964031E-03-9.85689857E-07 1.95713857E-10-1.49836245E-14    2
-4.89512140E+04-2.11073617E+00 3.28084634E+00 2.50183460E-03 8.08199998E-06    3
-1.20511416E-08 4.66547255E-12-4.84008304E+04 6.00080795E+00                   4

! Thermo library: primaryThermoLibrary
H2O                     H   2O   1          G   100.000  5000.000 1130.24      1
 2.84324866E+00 2.75108838E-03-7.81033120E-07 1.07244016E-10-5.79395308E-15    2
-2.99586120E+04 5.91043011E+00 4.05763610E+00-7.87938871E-04 2.90878480E-06    3
-1.47520039E-09 2.12847506E-13-3.02815866E+04-3.11365027E-01                   4

! Thermo library: thermo_DFT_CCSDTF12_BAC
CH2O                    C   1H   2O   1     G   100.000  5000.000 1070.44      1
 2.21172442E+00 7.94265679E-03-3.34193053E-06 6.28471401E-10-4.40431446E-14    2
-1.42974456E+04 1.13048985E+01 4.12927802E+00-4.08401318E-03 2.03229341E-05    3
-1.83524244E-08 5.37975522E-12-1.44294640E+04 3.22418463E+00                   4

! Thermo library: thermo_DFT_CCSDTF12_BAC
HCOOH                   C   1H   2O   2     G   100.000  5000.000  993.73      1
 5.64497050E+00 7.55187503E-03-3.20854541E-06 6.58926362E-10-5.05061286E-14    2
-4.79889887E+04-5.43086107E+00 3.76241335E+00-9.43947850E-04 3.38781957E-05    3
-4.04987780E-08 1.43988412E-11-4.68212105E+04 7.63273333E+00                   4

! Thermo library: thermo_DFT_CCSDTF12_BAC
CH3OH                   C   1H   4O   1     G   100.000  5000.000 1035.75      1
 2.79184298E+00 1.15827852E-02-4.51551928E-06 8.21206706E-10-5.67063250E-14    2
-2.57211674E+04 9.41061586E+00 3.84006214E+00 1.38241998E-03 1.91667191E-05    3
-2.01568660E-08 6.39102259E-12-2.56083087E+04 5.90978137E+00                   4

! Thermo library: DFT_QCI_thermo
HCOOCH3                 C   2H   4O   2     G   100.000  5000.000 1141.77      1
 4.90989100E+00 1.87529727E-02-8.58328635E-06 1.66847339E-09-1.18612079E-13    2
-4.59010044E+04 2.12202036E-01 3.28123251E+00 1.13180591E-02 1.84477587E-05    3
-2.41945197E-08 7.75136395E-12-4.46725565E+04 1.20363735E+01                   4


END


REACTIONS

END
