units(length='cm', time='s', quantity='mol', act_energy='kcal/mol')

ideal_gas(name='gas',
          elements="H D T C Ci O Oi N Ne Ar He Si S F Cl Br I X",
          species="""N2          Ar          He          Ne
                     CH3OH(1)    CO2(2)      CO(3)       H2(4)
                     H2O(5)      H(10)       CHO(19)     CH2O(31)
                     C2HO2(39)   C2H2O2(42)  C2H2O2(44)  C2HO2(66)
                     C2O2(67)    OCCO(68)    C2HO2(71)   C2HO2(73)
                     C2H2O2(80)  C3HO3(97)   S(106)""",
          reactions='gas-*',
          initial_state=state(temperature=300.0, pressure=OneAtm))

ideal_interface(name='surface1',
                elements="H D T C Ci O Oi N Ne Ar He Si S F Cl Br I X",
                species="""vacantX(6)  HX(23)      CHOX(40)    COX(867)""",
                site_density=2.72e-09,
                phases="gas",
          reactions='surface1-*',
                initial_state=state(temperature=300.0, pressure=OneAtm))

#-------------------------------------------------------------------------------
# Element data
#-------------------------------------------------------------------------------

element(symbol='Ci', atomic_mass=13.003)
element(symbol='D', atomic_mass=2.014)
element(symbol='Oi', atomic_mass=18.0)
element(symbol='T', atomic_mass=3.016)
element(symbol='X', atomic_mass=195.083)
#-------------------------------------------------------------------------------
# Species data
#-------------------------------------------------------------------------------

species(name='N2',
        atoms='N:2',
        thermo=(NASA([200.00, 1000.00],
                     [ 3.53101000E+00, -1.23661000E-04, -5.02999000E-07,
                       2.43531000E-09, -1.40881000E-12, -1.04698000E+03,
                       2.96747000E+00]),
                NASA([1000.00, 6000.00],
                     [ 2.95258000E+00,  1.39690000E-03, -4.92632000E-07,
                       7.86010000E-11, -4.60755000E-15, -9.23949000E+02,
                       5.87189000E+00])))

species(name='Ar',
        atoms='Ar:1',
        thermo=(NASA([200.00, 1000.00],
                     [ 2.50000000E+00,  0.00000000E+00,  0.00000000E+00,
                       0.00000000E+00,  0.00000000E+00, -7.45375000E+02,
                       4.37967000E+00]),
                NASA([1000.00, 6000.00],
                     [ 2.50000000E+00,  0.00000000E+00,  0.00000000E+00,
                       0.00000000E+00,  0.00000000E+00, -7.45375000E+02,
                       4.37967000E+00])))

species(name='He',
        atoms='He:1',
        thermo=(NASA([200.00, 1000.00],
                     [ 2.50000000E+00,  0.00000000E+00,  0.00000000E+00,
                       0.00000000E+00,  0.00000000E+00, -7.45375000E+02,
                       9.28724000E-01]),
                NASA([1000.00, 6000.00],
                     [ 2.50000000E+00,  0.00000000E+00,  0.00000000E+00,
                       0.00000000E+00,  0.00000000E+00, -7.45375000E+02,
                       9.28724000E-01])))

species(name='Ne',
        atoms='Ne:1',
        thermo=(NASA([200.00, 1000.00],
                     [ 2.50000000E+00,  0.00000000E+00,  0.00000000E+00,
                       0.00000000E+00,  0.00000000E+00, -7.45375000E+02,
                       3.35532000E+00]),
                NASA([1000.00, 6000.00],
                     [ 2.50000000E+00,  0.00000000E+00,  0.00000000E+00,
                       0.00000000E+00,  0.00000000E+00, -7.45375000E+02,
                       3.35532000E+00])))

species(name='CH3OH(1)',
        atoms='C:1 H:4 O:1',
        thermo=(NASA([100.00, 952.14],
                     [ 3.89496186E+00, -7.71353177E-04,  2.64755154E-05,
                      -2.91793620E-08,  1.00834696E-11, -2.63358548E+04,
                       6.36475927E+00]),
                NASA([952.14, 5000.00],
                     [ 3.13807836E+00,  1.03542063E-02, -3.56957315E-06,
                       6.22286689E-10, -4.27805556E-14, -2.65518956E+04,
                       8.08777760E+00])))

species(name='CO2(2)',
        atoms='C:1 O:2',
        thermo=(NASA([100.00, 988.88],
                     [ 3.27861947E+00,  2.74142452E-03,  7.16108738E-06,
                      -1.08031902E-08,  4.14301837E-12, -4.84703148E+04,
                       5.97933601E+00]),
                NASA([988.88, 5000.00],
                     [ 4.54606397E+00,  2.91918722E-03, -1.15486863E-06,
                       2.27661099E-10, -1.70916113E-14, -4.89803462E+04,
                      -1.43256811E+00])))

species(name='CO(3)',
        atoms='C:1 O:1',
        thermo=(NASA([100.00, 865.59],
                     [ 3.33666710E+00,  8.96491163E-03, -2.66757767E-05,
                       3.61073275E-08, -1.57200034E-11,  3.60691795E+04,
                      -1.20264536E+00]),
                NASA([865.59, 5000.00],
                     [-3.94100813E-01,  1.17562381E-02, -6.47407425E-06,
                       1.26374583E-09, -8.67560157E-14,  3.72563399E+04,
                       1.93843822E+01])))

species(name='H2(4)',
        atoms='H:2',
        thermo=(NASA([100.00, 1959.07],
                     [ 3.43536393E+00,  2.12711953E-04, -2.78628671E-07,
                       3.40270013E-10, -7.76039045E-14, -1.03135983E+03,
                      -3.90841661E+00]),
                NASA([1959.07, 5000.00],
                     [ 2.78818509E+00,  5.87615921E-04,  1.59022130E-07,
                      -5.52762536E-11,  4.34328120E-15, -5.96155632E+02,
                       1.12618494E-01])))

species(name='H2O(5)',
        atoms='H:2 O:1',
        thermo=(NASA([100.00, 1130.24],
                     [ 4.05763557E+00, -7.87932878E-04,  2.90876518E-06,
                      -1.47517698E-09,  2.12838441E-13, -3.02815866E+04,
                      -3.11363105E-01]),
                NASA([1130.24, 5000.00],
                     [ 2.84325231E+00,  2.75108244E-03, -7.81029811E-07,
                       1.07243254E-10, -5.79389106E-15, -2.99586136E+04,
                       5.91040933E+00])))

species(name='H(10)',
        atoms='H:1',
        thermo=(NASA([100.00, 4879.80],
                     [ 2.50000000E+00, -3.01680531E-12,  3.74582141E-15,
                      -1.50856878E-18,  1.86626471E-22,  2.54742178E+04,
                      -4.44972899E-01]),
                NASA([4879.80, 5000.00],
                     [ 4.28461071E+00, -1.45494649E-03,  4.44804306E-07,
                      -6.04359642E-11,  3.07921551E-15,  2.37230923E+04,
                      -1.18931307E+01])))

species(name='CHO(19)',
        atoms='C:1 H:1 O:1',
        thermo=(NASA([100.00, 1565.69],
                     [ 4.35603355E+00, -3.47100069E-03,  1.25667590E-05,
                      -9.99520853E-09,  2.27898162E-12,  3.99576988E+03,
                       2.75107711E+00]),
                NASA([1565.69, 5000.00],
                     [ 4.61823614E+00,  5.04517918E-03, -4.39271876E-06,
                       9.73348819E-10, -7.07487168E-14,  2.78773182E+03,
                      -2.22708622E+00])))

species(name='CH2O(31)',
        atoms='C:1 H:2 O:1',
        thermo=(NASA([100.00, 1402.30],
                     [ 4.32288112E+00, -5.06312082E-03,  2.15151303E-05,
                      -1.76517106E-08,  4.31801072E-12, -1.42789558E+04,
                       2.39248033E+00]),
                NASA([1402.30, 5000.00],
                     [ 3.18021978E+00,  9.55558924E-03, -6.27280673E-06,
                       1.33549950E-09, -9.68374447E-14, -1.50753600E+04,
                       4.30921519E+00])))

species(name='C2HO2(39)',
        atoms='C:2 H:1 O:2',
        thermo=(NASA([100.00, 1477.76],
                     [ 3.36381936E+00,  1.26478911E-02, -4.71380538E-06,
                      -6.99745177E-10,  5.02001892E-13, -8.16307179E+03,
                       1.16391138E+01]),
                NASA([1477.76, 5000.00],
                     [ 6.59980253E+00,  7.86741120E-03, -3.89993605E-06,
                       7.55018069E-10, -5.23320243E-14, -9.55389987E+03,
                      -6.70625733E+00])))

species(name='C2H2O2(42)',
        atoms='C:2 H:2 O:2',
        thermo=(NASA([100.00, 1174.75],
                     [ 3.27591757E+00,  1.27947859E-02,  2.72326313E-06,
                      -9.08399167E-09,  3.26465193E-12, -2.67610421E+04,
                       1.05776631E+01]),
                NASA([1174.75, 5000.00],
                     [ 5.94882655E+00,  1.13804418E-02, -5.28586433E-06,
                       1.03115064E-09, -7.33155568E-14, -2.79194518E+04,
                      -5.00560232E+00])))

species(name='C2H2O2(44)',
        atoms='C:2 H:2 O:2',
        thermo=(NASA([100.00, 885.07],
                     [ 2.56051340E+00,  2.11714750E-02,  8.08421748E-06,
                      -4.04899202E-08,  2.17599336E-11, -2.32662138E+04,
                       1.10515347E+01]),
                NASA([885.07, 5000.00],
                     [ 1.52072814E+01, -6.66449648E-03,  5.56944254E-06,
                      -1.16720529E-09,  8.06001643E-14, -2.66532691E+04,
                      -5.49053831E+01])))

species(name='C2HO2(66)',
        atoms='C:2 H:1 O:2',
        thermo=(NASA([100.00, 2056.10],
                     [ 3.70560931E+00,  1.11830096E-02, -2.46652741E-06,
                      -8.86158903E-10,  2.82719864E-13, -5.76504852E+03,
                       7.59801686E+00]),
                NASA([2056.10, 5000.00],
                     [ 7.63230322E+00,  8.27235565E-03, -3.79267205E-06,
                       6.62309428E-10, -4.15526282E-14, -8.37927491E+03,
                      -1.66069637E+01])))

species(name='C2O2(67)',
        atoms='C:2 O:2',
        thermo=(NASA([100.00, 857.43],
                     [ 2.53553894E+00,  2.40325555E-02, -4.26120401E-05,
                       3.87297523E-08, -1.34292795E-11,  7.69709914E+03,
                       2.55767243E+01]),
                NASA([857.43, 5000.00],
                     [ 4.78316333E+00,  7.73546550E-03, -3.93454238E-06,
                       7.52128514E-10, -5.12500630E-14,  7.52529476E+03,
                       1.63247293E+01])))

species(name='OCCO(68)',
        atoms='C:2 O:2',
        thermo=(NASA([100.00, 871.09],
                     [ 3.09811382E+00,  2.28497326E-02, -4.17926620E-05,
                       3.86216291E-08, -1.34607205E-11,  1.17905852E+03,
                       7.86899902E+00]),
                NASA([871.09, 5000.00],
                     [ 4.98309651E+00,  7.49284176E-03, -3.80902722E-06,
                       7.20360199E-10, -4.85535340E-14,  1.10489876E+03,
                       4.94511712E-01])))

species(name='C2HO2(71)',
        atoms='C:2 H:1 O:2',
        thermo=(NASA([100.00, 901.81],
                     [ 2.93172341E+00,  1.18204160E-02,  2.61317354E-05,
                      -5.48324234E-08,  2.55913235E-11,  1.77575424E+04,
                       1.48629997E+01]),
                NASA([901.81, 5000.00],
                     [ 1.41096506E+01, -6.64574884E-03,  5.09427103E-06,
                      -1.02177003E-09,  6.77772663E-14,  1.44762959E+04,
                      -4.49234413E+01])))

species(name='C2HO2(73)',
        atoms='C:2 H:1 O:2',
        thermo=(NASA([100.00, 1499.44],
                     [ 2.42224925E+00,  2.71303234E-02, -3.40219354E-05,
                       1.89762264E-08, -3.77407749E-12,  5.56988775E+03,
                       1.46701459E+01]),
                NASA([1499.44, 5000.00],
                     [ 1.03518105E+01, -1.58722826E-03,  2.27335768E-06,
                      -5.25428682E-10,  3.83556489E-14,  4.04223624E+03,
                      -2.39621087E+01])))

species(name='C2H2O2(80)',
        atoms='C:2 H:2 O:2',
        thermo=(NASA([100.00, 903.54],
                     [ 2.71397570E+00,  1.01507403E-02,  5.27406215E-05,
                      -9.33391360E-08,  4.17416975E-11, -1.10631229E+04,
                       1.18230231E+01]),
                NASA([903.54, 5000.00],
                     [ 1.82826332E+01, -1.08276984E-02,  7.97371943E-06,
                      -1.58120813E-09,  1.04144025E-13, -1.58335721E+04,
                      -7.25375179E+01])))

species(name='C3HO3(97)',
        atoms='C:3 H:1 O:3',
        thermo=(NASA([100.00, 823.16],
                     [ 2.44847881E+00,  3.71925512E-02, -4.54495811E-05,
                       3.15859325E-08, -9.19932534E-12, -2.44927970E+04,
                       1.59204840E+01]),
                NASA([823.16, 5000.00],
                     [ 6.61565925E+00,  1.69418003E-02, -8.54576953E-06,
                       1.69642234E-09, -1.21169435E-13, -2.51788117E+04,
                      -3.37257834E+00])))

species(name='S(106)',
        atoms='C:3 H:2 O:3',
        thermo=(NASA([100.00, 812.39],
                     [ 2.12204029E+00,  4.56108715E-02, -7.12859253E-05,
                       6.27711820E-08, -2.19923538E-11, -3.80915401E+04,
                       1.78330797E+01]),
                NASA([812.39, 5000.00],
                     [ 6.24314435E+00,  1.86676995E-02, -9.25569218E-06,
                       1.78845905E-09, -1.24141410E-13, -3.85416257E+04,
                       1.58375268E-01])))

species(name='vacantX(6)',
        atoms='X:1',
        thermo=(NASA([100.00, 1554.81],
                     [ 7.10129478E-03, -4.25609798E-05,  8.98507278E-08,
                      -7.80169595E-11,  2.32458299E-14, -8.76096726E-01,
                      -3.11207473E-02]),
                NASA([1554.81, 5000.00],
                     [ 1.60302910E-01, -2.52239722E-04,  1.14183461E-07,
                      -1.21476333E-11,  3.85825979E-16, -7.08116648E+01,
                      -9.09545048E-01])))

species(name='HX(23)',
        atoms='H:1 X:1',
        thermo=(NASA([100.00, 952.90],
                     [-3.80945029E-01,  5.47203694E-03,  2.61004478E-06,
                      -9.65086662E-09,  4.64002394E-12, -1.40383060E+03,
                       1.01718287E+00]),
                NASA([952.90, 5000.00],
                     [ 2.80332808E+00, -5.40928806E-04,  4.99439071E-07,
                      -7.54799604E-11,  3.06635509E-15, -2.34455093E+03,
                      -1.59432943E+01])))

species(name='CHOX(40)',
        atoms='C:1 H:1 O:1 X:1',
        thermo=(NASA([100.00, 873.23],
                     [-1.43676851E+00,  3.69240048E-02, -7.17890842E-05,
                       6.73513128E-08, -2.35168871E-11, -2.16943127E+04,
                       8.27552319E+00]),
                NASA([873.23, 5000.00],
                     [ 1.83273887E+00,  1.00779869E-02, -5.28539908E-06,
                       1.01353586E-09, -6.85197667E-14, -2.18127769E+04,
                      -4.46356931E+00])))

species(name='COX(867)',
        atoms='C:1 O:1 X:1',
        thermo=(NASA([100.00, 891.33],
                     [-1.38214121E+00,  3.75305409E-02, -8.29758476E-05,
                       8.09701555E-08, -2.85470829E-11, -2.25359505E+04,
                       4.35447670E+00]),
                NASA([891.33, 5000.00],
                     [ 1.38090660E+00,  8.05719010E-03, -4.64308960E-06,
                       8.91170699E-10, -5.90048361E-14, -2.23502762E+04,
                      -4.85318015E+00])))

#-------------------------------------------------------------------------------
# Reaction data
#-------------------------------------------------------------------------------
#  Reaction index: Chemkin #1; RMG #5
#  Template reaction: R_Recombination
#  Flux pairs: H(10), H2(4); H(10), H2(4);
#  Matched reaction 56 H + H <=> H2 in R_Recombination/training
#  This reaction matched rate rule [Root_1R->H_N-2R->S_2CHNO->H]
#  family: R_Recombination

# Reaction 1
reaction('H(10) + H(10) <=> H2(4)', [5.450000e+10, 0.0, 1.5],
         id='gas-1',
         options='duplicate')
#  Reaction index: Chemkin #2; RMG #46
#  Template reaction: R_Recombination
#  Flux pairs: H(10), H2(4); H(10), H2(4);
#  Matched reaction 56 H + H <=> H2 in R_Recombination/training
#  This reaction matched rate rule [Root_1R->H_N-2R->S_2CHNO->H]
#  family: R_Recombination

# Reaction 2
reaction('H(10) + H(10) <=> H2(4)', [5.450000e+10, 0.0, 1.5],
         id='gas-2',
         options='duplicate')
#  Reaction index: Chemkin #3; RMG #31
#  Template reaction: CO_Disproportionation
#  Flux pairs: H(10), H2(4); CHO(19), CO(3);
#  Matched reaction 0 HCO + H <=> CO + H2 in CO_Disproportionation/training
#  This reaction matched rate rule [H_rad;HCO]
#  family: CO_Disproportionation
#  Ea raised from 0.0 to 46.1 kJ/mol to match endothermicity of reaction.

# Reaction 3
reaction('H(10) + CHO(19) <=> H2(4) + CO(3)', [9.030000e+13, 0.0, 11.023],
         id='gas-3',
         options='duplicate')
#  Reaction index: Chemkin #4; RMG #43
#  Template reaction: R_Addition_COm
#  Flux pairs: H(10), CHO(19); CO(3), CHO(19);
#  Matched reaction 4 H + CO <=> CHO in R_Addition_COm/training
#  This reaction matched rate rule [COm;H_rad]
#  family: R_Addition_COm

# Reaction 4
reaction('H(10) + CO(3) <=> CHO(19)', [1.180000e+11, 0.0, 2.72],
         id='gas-4')
#  Reaction index: Chemkin #5; RMG #64
#  Template reaction: CO_Disproportionation
#  Flux pairs: CHO(19), CO(3); H(10), H2(4);
#  Matched reaction 0 HCO + H <=> CO + H2 in CO_Disproportionation/training
#  This reaction matched rate rule [H_rad;HCO]
#  family: CO_Disproportionation
#  Ea raised from 0.0 to 46.1 kJ/mol to match endothermicity of reaction.

# Reaction 5
reaction('H(10) + CHO(19) <=> H2(4) + CO(3)', [9.030000e+13, 0.0, 11.023],
         id='gas-5',
         options='duplicate')
#  Reaction index: Chemkin #6; RMG #70
#  Template reaction: R_Recombination
#  Flux pairs: CHO(19), C2H2O2(42); CHO(19), C2H2O2(42);
#  Matched reaction 93 CHO + CHO <=> C2H2O2 in R_Recombination/training
#  This reaction matched rate rule [Root_N-1R->H_N-1CNOS->N_N-1COS->O_1CS->C_N-1C-inRing_Ext-2R-R_N-Sp-3R!H-2R_3R!H->O_Ext-1C-R_N-4R!H->C]
#  family: R_Recombination

# Reaction 6
reaction('CHO(19) + CHO(19) <=> C2H2O2(42)', [7.550000e+12, 0.0, 0.0],
         id='gas-6')
#  Reaction index: Chemkin #7; RMG #57
#  Template reaction: R_Addition_COm
#  Flux pairs: CHO(19), C2HO2(39); CO(3), C2HO2(39);
#  Estimated using template [COm;Y_rad] for rate rule [COm;CO_pri_rad]
#  Euclidian distance = 2.0
#  family: R_Addition_COm

# Reaction 7
reaction('CO(3) + CHO(19) <=> C2HO2(39)', [1.614821e+09, 0.595, 1.263],
         id='gas-7')
#  Reaction index: Chemkin #8; RMG #72
#  Template reaction: R_Recombination
#  Flux pairs: C2HO2(39), C2H2O2(42); H(10), C2H2O2(42);
#  BM rule fitted to 2 training reactions at node Root_1R->H_N-2R->S_N-2CHNO->H_N-2CNO-inRing_Ext-2CNO-R_Sp-3R!H=2CCNNOO_3R!H->O
#      Total Standard Deviation in ln(k): 11.5401827615
#  Exact match found for rate rule [Root_1R->H_N-2R->S_N-2CHNO->H_N-2CNO-inRing_Ext-2CNO-R_Sp-3R!H=2CCNNOO_3R!H->O]
#  Euclidian distance = 0
#  family: R_Recombination

# Reaction 8
reaction('H(10) + C2HO2(39) <=> C2H2O2(42)', [9.102870e+19, -2.744, 0.0],
         id='gas-8')
#  Reaction index: Chemkin #9; RMG #86
#  Template reaction: CO_Disproportionation
#  Flux pairs: C2HO2(39), C2H2O2(42); CHO(19), CO(3);
#  Estimated using template [CO_rad;HCO] for rate rule [CO_rad/OneDe;HCO]
#  Euclidian distance = 2.0
#  family: CO_Disproportionation
#  Ea raised from 0.0 to 111.9 kJ/mol to match endothermicity of reaction.

# Reaction 9
reaction('CHO(19) + C2HO2(39) <=> CO(3) + C2H2O2(42)', [1.800000e+13, 0.0, 26.735],
         id='gas-9')
#  Reaction index: Chemkin #10; RMG #96
#  Template reaction: H_Abstraction
#  Flux pairs: H(10), H2(4); C2H2O2(42), C2HO2(39);
#  Estimated using template [CO_sec;H_rad] for rate rule [CO/H/OneDe;H_rad]
#  Euclidian distance = 1.0
#  Multiplied by reaction path degeneracy 2.0
#  family: H_Abstraction

# Reaction 10
reaction('H(10) + C2H2O2(42) <=> H2(4) + C2HO2(39)', [2.600000e+05, 2.58, 1.219],
         id='gas-10')
#  Reaction index: Chemkin #11; RMG #30
#  Template reaction: 1,2_Insertion_CO
#  Flux pairs: H2(4), CH2O(31); CO(3), CH2O(31);
#  Matched reaction 2 H2 + CO <=> CH2O in 1,2_Insertion_CO/training
#  This reaction matched rate rule [CO;H2]
#  family: 1,2_Insertion_CO

# Reaction 11
reaction('H2(4) + CO(3) <=> CH2O(31)', [2.890000e+09, 1.16, 82.1],
         id='gas-11')
#  Reaction index: Chemkin #12; RMG #59
#  Template reaction: H_Abstraction
#  Flux pairs: CHO(19), CH2O(31); H2(4), H(10);
#  Matched reaction 309 H2 + HCO_r3 <=> CH2O + H in H_Abstraction/training
#  This reaction matched rate rule [H2;CO_pri_rad]
#  family: H_Abstraction

# Reaction 12
reaction('H2(4) + CHO(19) <=> H(10) + CH2O(31)', [1.800000e+06, 2.0, 48.94],
         id='gas-12')
#  Reaction index: Chemkin #13; RMG #66
#  Template reaction: R_Recombination
#  Flux pairs: CHO(19), CH2O(31); H(10), CH2O(31);
#  Matched reaction 63 H + CHO <=> CH2O in R_Recombination/training
#  This reaction matched rate rule [Root_1R->H_N-2R->S_N-2CHNO->H_N-2CNO-inRing_Ext-2CNO-R_Sp-3R!H=2CCNNOO_3R!H->O]
#  family: R_Recombination

# Reaction 13
reaction('H(10) + CHO(19) <=> CH2O(31)', [4.680000e+10, 0.0, -4.53],
         id='gas-13')
#  Reaction index: Chemkin #14; RMG #67
#  Template reaction: CO_Disproportionation
#  Flux pairs: CHO(19), CO(3); CHO(19), CH2O(31);
#  Matched reaction 5 HCO + HCO_Y <=> CO + CH2O in CO_Disproportionation/training
#  This reaction matched rate rule [CO_pri_rad;HCO]
#  family: CO_Disproportionation
#  Ea raised from 0.0 to 114.6 kJ/mol to match endothermicity of reaction.

# Reaction 14
reaction('CHO(19) + CHO(19) <=> CO(3) + CH2O(31)', [1.800000e+13, 0.0, 27.38],
         id='gas-14')
#  Reaction index: Chemkin #15; RMG #102
#  Template reaction: H_Abstraction
#  Flux pairs: CH2O(31), CHO(19); C2HO2(39), C2H2O2(42);
#  Estimated using template [CO_pri;CO_sec_rad] for rate rule [CO_pri;CO_rad/OneDe]
#  Euclidian distance = 1.0
#  Multiplied by reaction path degeneracy 2.0
#  family: H_Abstraction

# Reaction 15
reaction('CH2O(31) + C2HO2(39) <=> CHO(19) + C2H2O2(42)', [1.810000e+11, 0.0, 12.92],
         id='gas-15')
#  Reaction index: Chemkin #16; RMG #117
#  Template reaction: R_Recombination
#  Flux pairs: H(10), C2HO2(39); OCCO(68), C2HO2(39);
#  BM rule fitted to 2 training reactions at node Root_1R->H_N-2R->S_N-2CHNO->H_N-2CNO-inRing_Ext-2CNO-R_Sp-3R!H=2CCNNOO_3R!H->O
#      Total Standard Deviation in ln(k): 11.5401827615
#  Exact match found for rate rule [Root_1R->H_N-2R->S_N-2CHNO->H_N-2CNO-inRing_Ext-2CNO-R_Sp-3R!H=2CCNNOO_3R!H->O]
#  Euclidian distance = 0
#  Multiplied by reaction path degeneracy 2.0
#  family: R_Recombination

# Reaction 16
reaction('H(10) + OCCO(68) <=> C2HO2(39)', [1.820574e+20, -2.744, 0.0],
         id='gas-16',
         options='duplicate')
#  Reaction index: Chemkin #17; RMG #156
#  Template reaction: CO_Disproportionation
#  Flux pairs: OCCO(68), C2HO2(39); CHO(19), CO(3);
#  Estimated using an average for rate rule [Y_rad;HCO]
#  Euclidian distance = 0
#  Multiplied by reaction path degeneracy 2.0
#  family: CO_Disproportionation
#  Ea raised from 187.9 to 188.9 kJ/mol to match endothermicity of reaction.

# Reaction 17
reaction('CHO(19) + OCCO(68) <=> CO(3) + C2HO2(39)', [2.695301e+15, -0.548, 45.148],
         id='gas-17',
         options='duplicate')
#  Reaction index: Chemkin #18; RMG #360
#  Template reaction: R_Recombination
#  Flux pairs: OCCO(68), C2HO2(39); H(10), C2HO2(39);
#  BM rule fitted to 2 training reactions at node Root_1R->H_N-2R->S_N-2CHNO->H_N-2CNO-inRing_Ext-2CNO-R_Sp-3R!H=2CCNNOO_3R!H->O
#      Total Standard Deviation in ln(k): 11.5401827615
#  Exact match found for rate rule [Root_1R->H_N-2R->S_N-2CHNO->H_N-2CNO-inRing_Ext-2CNO-R_Sp-3R!H=2CCNNOO_3R!H->O]
#  Euclidian distance = 0
#  Multiplied by reaction path degeneracy 2.0
#  family: R_Recombination

# Reaction 18
reaction('H(10) + OCCO(68) <=> C2HO2(39)', [1.820574e+20, -2.744, 0.0],
         id='gas-18',
         options='duplicate')
#  Reaction index: Chemkin #19; RMG #366
#  Template reaction: CO_Disproportionation
#  Flux pairs: CHO(19), CO(3); OCCO(68), C2HO2(39);
#  Estimated using an average for rate rule [Y_rad;HCO]
#  Euclidian distance = 0
#  Multiplied by reaction path degeneracy 2.0
#  family: CO_Disproportionation
#  Ea raised from 187.9 to 188.9 kJ/mol to match endothermicity of reaction.

# Reaction 19
reaction('CHO(19) + OCCO(68) <=> CO(3) + C2HO2(39)', [2.695301e+15, -0.548, 45.148],
         id='gas-19',
         options='duplicate')
#  Reaction index: Chemkin #20; RMG #116
#  Template reaction: R_Addition_MultipleBond
#  Flux pairs: C2O2(67), C2HO2(39); H(10), C2HO2(39);
#  Estimated using template [Cdd_Cdd;HJ] for rate rule [Ck_Ck;HJ]
#  Euclidian distance = 1.0
#  Multiplied by reaction path degeneracy 2.0
#  family: R_Addition_MultipleBond

# Reaction 20
reaction('H(10) + C2O2(67) <=> C2HO2(39)', [1.246000e+09, 1.429, 3.987],
         id='gas-20',
         options='duplicate')
#  Reaction index: Chemkin #21; RMG #177
#  Template reaction: Disproportionation
#  Flux pairs: C2HO2(39), C2O2(67); H(10), H2(4);
#  Estimated using template [H_rad;XH_s_Rrad] for rate rule [H_rad;COpri_COrad]
#  Euclidian distance = 2.0
#  family: Disproportionation

# Reaction 21
reaction('H(10) + C2HO2(39) <=> H2(4) + C2O2(67)', [1.157174e+11, 0.55, 0.023],
         id='gas-21')
#  Reaction index: Chemkin #22; RMG #183
#  Template reaction: Disproportionation
#  Flux pairs: C2HO2(39), C2O2(67); CHO(19), CH2O(31);
#  Estimated using template [CO_pri_rad;XH_s_Rrad] for rate rule [CO_pri_rad;COpri_COrad]
#  Euclidian distance = 2.0
#  family: Disproportionation

# Reaction 22
reaction('CHO(19) + C2HO2(39) <=> CH2O(31) + C2O2(67)', [1.810000e+14, 0.0, 0.0],
         id='gas-22')
#  Reaction index: Chemkin #23; RMG #234
#  Template reaction: Disproportionation
#  Flux pairs: C2HO2(39), C2O2(67); C2HO2(39), C2H2O2(42);
#  Estimated using template [CO_rad;XH_s_Rrad] for rate rule [CO_rad/OneDe;COpri_COrad]
#  Euclidian distance = 2.8284271247461903
#  family: Disproportionation

# Reaction 23
reaction('C2HO2(39) + C2HO2(39) <=> C2O2(67) + C2H2O2(42)', [1.810000e+14, 0.0, 0.0],
         id='gas-23')
#  Reaction index: Chemkin #24; RMG #336
#  Template reaction: 1,2-Birad_to_alkene
#  Flux pairs: OCCO(68), C2O2(67);
#  Estimated using an average for rate rule [NOS]
#  Euclidian distance = 0
#  family: 1,2-Birad_to_alkene
#  Ea raised from 0.0 to 54.2 kJ/mol to match endothermicity of reaction.

# Reaction 24
reaction('OCCO(68) => C2O2(67)', [1.000000e+10, 0.0, 12.948],
         id='gas-24')
#  Reaction index: Chemkin #25; RMG #391
#  Template reaction: Disproportionation
#  Flux pairs: C2HO2(39), C2O2(67); OCCO(68), C2HO2(39);
#  Estimated using template [Y_rad;XH_s_Rrad] for rate rule [Y_rad;COpri_COrad]
#  Euclidian distance = 2.0
#  Multiplied by reaction path degeneracy 2.0
#  family: Disproportionation
#  Ea raised from 53.2 to 54.2 kJ/mol to match endothermicity of reaction.

# Reaction 25
reaction('OCCO(68) + C2HO2(39) <=> C2O2(67) + C2HO2(39)', [1.322006e+11, 0.573, 12.948],
         id='gas-25')
#  Reaction index: Chemkin #26; RMG #442
#  Template reaction: R_Addition_MultipleBond
#  Flux pairs: H(10), C2HO2(39); C2O2(67), C2HO2(39);
#  From training reaction 188 used for Ck_O;HJ
#  Exact match found for rate rule [Ck_O;HJ]
#  Euclidian distance = 0
#  Multiplied by reaction path degeneracy 2.0
#  family: R_Addition_MultipleBond

# Reaction 26
reaction('H(10) + C2O2(67) <=> C2HO2(39)', [1.409700e+10, 1.431, 0.698],
         id='gas-26',
         options='duplicate')
#  Reaction index: Chemkin #27; RMG #163
#  Template reaction: Disproportionation
#  Estimated using template [Y_rad;Cdpri_Rrad] for rate rule [H_rad;Cdpri_Orad]
#  Euclidian distance = 1.4142135623730951
#  Multiplied by reaction path degeneracy 2.0
#  family: Disproportionation

# Reaction 27
reaction('H(10) + C2H2O2(80) <=> H2(4) + C2HO2(39)', [6.960624e+12, 0.0, 6.0],
         id='gas-27')
#  Reaction index: Chemkin #28; RMG #181
#  Template reaction: R_Addition_MultipleBond
#  Flux pairs: H(10), C2H2O2(80); C2HO2(39), C2H2O2(80);
#  From training reaction 188 used for Ck_O;HJ
#  Exact match found for rate rule [Ck_O;HJ]
#  Euclidian distance = 0
#  family: R_Addition_MultipleBond

# Reaction 28
reaction('H(10) + C2HO2(39) <=> C2H2O2(80)', [7.048498e+09, 1.431, 0.698],
         id='gas-28')
#  Reaction index: Chemkin #29; RMG #219
#  Template reaction: Disproportionation
#  Estimated using template [CO_rad;XH_s_Rrad] for rate rule [CO_rad/OneDe;Cdpri_Orad]
#  Euclidian distance = 2.8284271247461903
#  Multiplied by reaction path degeneracy 2.0
#  family: Disproportionation

# Reaction 29
reaction('C2HO2(39) + C2H2O2(80) <=> C2HO2(39) + C2H2O2(42)', [3.620000e+14, 0.0, 0.0],
         id='gas-29')
#  Reaction index: Chemkin #30; RMG #248
#  Template reaction: Disproportionation
#  Estimated using template [Y_rad;Cdpri_Rrad] for rate rule [Y_rad;Cdpri_Orad]
#  Euclidian distance = 1.0
#  Multiplied by reaction path degeneracy 4.0
#  family: Disproportionation

# Reaction 30
reaction('OCCO(68) + C2H2O2(80) <=> C2HO2(39) + C2HO2(39)', [1.392125e+13, 0.0, 6.0],
         id='gas-30',
         options='duplicate')
#  Reaction index: Chemkin #31; RMG #321
#  Template reaction: Disproportionation
#  Estimated using template [CO_pri_rad;XH_s_Rrad] for rate rule [CO_pri_rad;Cdpri_Orad]
#  Euclidian distance = 2.0
#  Multiplied by reaction path degeneracy 2.0
#  family: Disproportionation

# Reaction 31
reaction('CHO(19) + C2H2O2(80) <=> CH2O(31) + C2HO2(39)', [3.620000e+14, 0.0, 0.0],
         id='gas-31')
#  Reaction index: Chemkin #32; RMG #493
#  Template reaction: 1,2-Birad_to_alkene
#  Flux pairs: C2H2O2(80), C2H2O2(42);
#  Estimated using an average for rate rule [NOS]
#  Euclidian distance = 0
#  family: 1,2-Birad_to_alkene

# Reaction 32
reaction('C2H2O2(80) => C2H2O2(42)', [1.000000e+10, 0.0, 0.0],
         id='gas-32')
#  Reaction index: Chemkin #33; RMG #618
#  Template reaction: Disproportionation
#  Flux pairs: C2H2O2(80), C2HO2(39); OCCO(68), C2HO2(39);