units(length='cm', time='s', quantity='mol', act_energy='kcal/mol')

ideal_gas(name='gas',
          elements="H D T C Ci O Oi N Ne Ar He Si S Cl I X",
          species="""Ar      He      Ne      N2      CH4  CO2  H2O
                     H2   O2   CO""",
          transport='Mix',
          initial_state=state(temperature=300.0, pressure=OneAtm))

ideal_interface(name='surface1',
                elements="H D T C Ci O Oi N Ne Ar He Si S Cl I X",
                species="""site    HX      OX      OCX
                           CH3X   HOX    CX     HOCXO
                           CHX    CXHO   CH4X   CO2X   
			   H2OX  CXOH CH2X HCXOH CHO2X H2COX """,
                site_density=2.9e-09,
                phases="gas",
          reactions='all',
                initial_state=state(temperature=300.0, pressure=OneAtm))

#-------------------------------------------------------------------------------
# Element data
#-------------------------------------------------------------------------------

element(symbol='Ci', atomic_mass=13.003)
element(symbol='D', atomic_mass=2.014)
element(symbol='Oi', atomic_mass=18.0)
element(symbol='T', atomic_mass=3.016)
element(symbol='X', atomic_mass=195.083)
#-------------------------------------------------------------------------------
# Species data
#-------------------------------------------------------------------------------

species(name='Ar',
        atoms='Ar:1',
        thermo=(NASA([200.00, 1000.00],
                     [ 2.50000000E+00,  0.00000000E+00,  0.00000000E+00,
                       0.00000000E+00,  0.00000000E+00, -7.45375000E+02,
                       4.37967000E+00]),
                NASA([1000.00, 6000.00],
                     [ 2.50000000E+00,  0.00000000E+00,  0.00000000E+00,
                       0.00000000E+00,  0.00000000E+00, -7.45375000E+02,
                       4.37967000E+00])),
        transport=gas_transport(geom='atom',
                                diam=3.33,
                                well_depth=136.501))

species(name='He',
        atoms='He:1',
        thermo=(NASA([200.00, 1000.00],
                     [ 2.50000000E+00,  0.00000000E+00,  0.00000000E+00,
                       0.00000000E+00,  0.00000000E+00, -7.45375000E+02,
                       9.28724000E-01]),
                NASA([1000.00, 6000.00],
                     [ 2.50000000E+00,  0.00000000E+00,  0.00000000E+00,
                       0.00000000E+00,  0.00000000E+00, -7.45375000E+02,
                       9.28724000E-01])),
        transport=gas_transport(geom='atom',
                                diam=2.576,
                                well_depth=10.2))

species(name='Ne',
        atoms='Ne:1',
        thermo=(NASA([200.00, 1000.00],
                     [ 2.50000000E+00,  0.00000000E+00,  0.00000000E+00,
                       0.00000000E+00,  0.00000000E+00, -7.45375000E+02,
                       3.35532000E+00]),
                NASA([1000.00, 6000.00],
                     [ 2.50000000E+00,  0.00000000E+00,  0.00000000E+00,
                       0.00000000E+00,  0.00000000E+00, -7.45375000E+02,
                       3.35532000E+00])),
        transport=gas_transport(geom='atom',
                                diam=3.758,
                                well_depth=148.6))

species(name='N2',
        atoms='N:2',
        thermo=(NASA([200.00, 1000.00],
                     [ 3.53101000E+00, -1.23661000E-04, -5.02999000E-07,
                       2.43531000E-09, -1.40881000E-12, -1.04698000E+03,
                       2.96747000E+00]),
                NASA([1000.00, 6000.00],
                     [ 2.95258000E+00,  1.39690000E-03, -4.92632000E-07,
                       7.86010000E-11, -4.60755000E-15, -9.23949000E+02,
                       5.87189000E+00])),
        transport=gas_transport(geom='linear',
                                diam=3.621,
                                well_depth=97.53,
                                polar=1.76,
                                rot_relax=4.0))

species(name='CH4',
        atoms='C:1 H:4',
        thermo=(NASA([100.00, 1084.15],
                     [ 4.20540072E+00, -5.35540640E-03,  2.51117636E-05,
                      -2.13755910E-08,  5.97496145E-12, -1.01619427E+04,
                      -9.21226951E-01]),
                NASA([1084.15, 5000.00],
                     [ 9.08349401E-01,  1.14539479E-02, -4.57166053E-06,
                       8.29173612E-10, -5.66300105E-14, -9.72001110E+03,
                       1.39926204E+01])),
        transport=gas_transport(geom='nonlinear',
                                diam=3.746,
                                well_depth=141.4,
                                polar=2.6,
                                rot_relax=13.0))

species(name='CO2',
        atoms='C:1 O:2',
        thermo=(NASA([100.00, 978.22],
                     [ 3.28083821E+00,  2.50193291E-03,  8.08164577E-06,
                      -1.20506695E-08,  4.66526645E-12, -4.84008301E+04,
                       6.00083693E+00]),
                NASA([978.22, 5000.00],
                     [ 4.67429780E+00,  2.60958835E-03, -9.85659769E-07,
                       1.95706729E-10, -1.49830320E-14, -4.89512267E+04,
                      -2.11090702E+00])),
        transport=gas_transport(geom='linear',
                                diam=3.941,
                                well_depth=195.201))

species(name='H2O',
        atoms='H:2 O:1',
        thermo=(NASA([100.00, 1130.25],
                     [ 4.05763720E+00, -7.87951343E-04,  2.90882564E-06,
                      -1.47524910E-09,  2.12866372E-13, -3.02815867E+04,
                      -3.11369025E-01]),
                NASA([1130.25, 5000.00],
                     [ 2.84324104E+00,  2.75110073E-03, -7.81040007E-07,
                       1.07245603E-10, -5.79408217E-15, -2.99586086E+04,
                       5.91047337E+00])),
        transport=gas_transport(geom='nonlinear',
                                diam=2.641,
                                well_depth=809.102,
                                polar=1.76,
                                rot_relax=4.0))

species(name='H2',
        atoms='H:2',
        thermo=(NASA([100.00, 1959.08],
                     [ 3.43536411E+00,  2.12710383E-04, -2.78625110E-07,
                       3.40267219E-10, -7.76032129E-14, -1.03135984E+03,
                      -3.90841731E+00]),
                NASA([1959.08, 5000.00],
                     [ 2.78816619E+00,  5.87640475E-04,  1.59010635E-07,
                      -5.52739465E-11,  4.34311304E-15, -5.96144481E+02,
                       1.12730527E-01])),
        transport=gas_transport(geom='linear',
                                diam=2.833,
                                well_depth=59.7))

species(name='O2',
        atoms='O:2',
        thermo=(NASA([100.00, 1074.56],
                     [ 3.53732118E+00, -1.21570207E-03,  5.31615377E-06,
                      -4.89440387E-09,  1.45843816E-12, -1.03858843E+03,
                       4.68368631E+00]),
                NASA([1074.56, 5000.00],
                     [ 3.15382772E+00,  1.67803228E-03, -7.69967779E-07,
                       1.51273960E-10, -1.08781182E-14, -1.04082030E+03,
                       6.16751919E+00])),
        transport=gas_transport(geom='linear',
                                diam=3.467,
                                well_depth=106.7))

species(name='CO',
        atoms='C:1 O:1',
        thermo=(NASA([100.00, 1571.64],
                     [ 3.56837982E+00, -8.52124063E-04,  2.48917390E-06,
                      -1.56330672E-09,  3.13594213E-13, -1.42842549E+04,
                       3.57912239E+00]),
                NASA([1571.64, 5000.00],
                     [ 2.91306987E+00,  1.64657389E-03, -6.88612820E-07,
                       1.21036930E-10, -7.84014743E-15, -1.41808862E+04,
                       6.71043900E+00])),
        transport=gas_transport(geom='linear',
                                diam=3.69,
                                well_depth=91.7,
                                polar=1.76,
                                rot_relax=4.0))

species(name='site',
        atoms='X:1',
        thermo=(NASA([100.00, 1000],
                     [0,0,0,0,0,0,0]),
                NASA([1000, 5000.00],
                     [0,0,0,0,0,0,0])))

species(name='HX',
        atoms='H:1 X:1',
        thermo=(NASA( [300.0, 1000.0], [-2.11741799E+00, 1.34081064E-02,
 		 -1.47151259E-05, 7.24162798E-09, -1.21860105E-12,
 		 -6.34875895E+03, 8.88276981E+00]), 
		NASA( [1000.0, 2000.0], [2.59294620E+00, -1.59121348E-03,
 		 2.94085420E-06, -1.65265782E-09, 3.08660361E-13,
 		 -7.52667071E+03, -1.49009968E+01])))

species(name='OX',
        atoms='O:1 X:1',
        thermo=(NASA( [300.0, 1000.0], [-3.07844584E-01, 1.44283075E-02,
 		 -2.60985127E-05, 2.18400291E-08, -6.95347726E-12,
 		 -2.89277371E+04, -1.27368325E-01]), 
		NASA( [1000.0, 2000.0], [2.90104878E+00, -3.44587264E-04,
 		 6.54395890E-07, -3.72523236E-10, 7.01678295E-14,
 		 -2.95194102E+04, -1.52489051E+01])))

species(name='OCX',
        atoms='C:1 O:1 X:1',
        thermo=(NASA( [300.0, 1000.0], [2.95598224E+00, 7.63715319E-03,
 		 -1.08766726E-05, 8.66270736E-09, -2.83279622E-12,
 		 -2.82409029E+04, -1.37450280E+01]), 
		NASA( [1000.0, 2000.0], [5.53635189E+00, -1.49964609E-03,
 		 2.74741261E-06, -1.51690448E-09, 2.79160008E-13,
 		 -2.88717229E+04, -2.66296185E+01])))

species(name='CH3X',
        atoms='C:1 H:3 X:1',
        thermo=(NASA( [300.0, 1000.0], [6.23505962E-01, 2.14100093E-02,
 		 -2.68889815E-05, 2.01751894E-08, -6.24408736E-12,
 		 -2.71344541E+03, -4.70164440E+00]), 
		NASA( [1000.0, 2000.0], [9.04948302E+00, -7.34837242E-03,
 		 1.30960658E-05, -6.96607547E-09, 1.24453482E-12,
 		 -4.80098895E+03, -4.69654411E+01])))

species(name='HOX',
        atoms='H:1 O:1 X:1',
        thermo=(NASA( [300.0, 1000.0], [2.62134274E-01, 2.10860016E-02,
 		 -3.90251532E-05, 3.34253338E-08, -1.07379949E-11,
 		 -3.25521756E+04, -3.31228458E+00]), 
		NASA( [1000.0, 2000.0], [5.00022961E+00, -1.41105424E-03,
 		 2.38705929E-06, -1.15726247E-09, 1.91349394E-13,
 		 -3.33860336E+04, -2.54557420E+01])))

species(name='CX',
        atoms='C:1 X:1',
        thermo=(NASA( [300.0, 1000.0], [-1.51509194E+00, 1.87374710E-02,
 		 -3.27320543E-05, 2.67098145E-08, -8.34605949E-12,
 		 1.84854777E+04, 5.18141432E+00]), 
		NASA( [1000.0, 2000.0], [2.84499043E+00, -5.64167458E-04,
 		 1.06351833E-06, -6.03820414E-10, 1.13558909E-13,
 		 1.76475087E+04, -1.55434751E+01])))

species(name='HOCXO',
        atoms='C:1 H:1 O:2 X:1',
        thermo=(NASA( [300.0, 1000.0], [8.79907884E-01, 2.27352909E-02,
 		 -2.59402926E-05, 1.50766244E-08, -3.49353949E-12,
 		 -4.89341882E+04, 1.13383429E+00]), 
		NASA( [1000.0, 2000.0], [9.24229089E+00, -4.47975913E-03,
 		 8.03254120E-06, -4.31571906E-09, 7.78637216E-13,
 		 -5.10196736E+04, -4.10067576E+01])))

species(name='CHX',
        atoms='C:1 H:1 X:1',
        thermo=(NASA( [300.0, 1000.0], [-2.58555698E+00, 3.06934030E-02,
 		 -5.33774782E-05, 4.42056548E-08, -1.39611956E-11,
 		 6.25962654E+03, 9.07898465E+00]), 
		NASA( [1000.0, 2000.0], [4.95799860E+00, -2.39910569E-03,
 		 4.27881304E-06, -2.26661510E-09, 4.03736099E-13,
 		 4.78864266E+03, -2.68661645E+01])))

species(name='CXHO',
        atoms='C:1 H:1 O:1 X:1',
        thermo=(NASA( [300.0, 1000.0], [1.00974648E+00, 1.97185937E-02,
 		 -2.61051458E-05, 1.82333800E-08, -5.16004850E-12,
 		 -1.85446875E+04, -5.63559874E+00]), 
		NASA( [1000.0, 2000.0], [7.68118416E+00, -3.62478273E-03,
 		 6.53211803E-06, -3.53160128E-09, 6.39607695E-13,
 		 -2.01422109E+04, -3.88904334E+01])))

species(name='CXOH',
        atoms='C:1 H:1 O:1 X:1',
        thermo=(NASA( [300.0, 1000.0], [1.37983759E+00, 1.96873110E-02,
 		 -2.72057674E-05, 1.90775263E-08, -5.29374188E-12,
 		 -2.06596520E+04, -6.75451449E+00]), 
		NASA( [1000.0, 2000.0], [7.63406012E+00, -2.98302940E-03,
 		 5.28018822E-06, -2.77954839E-09, 4.93495127E-13,
 		 -2.21005350E+04, -3.76909083E+01])))

species(name='CH4X',
        atoms='C:1 H:4 X:1',
        thermo=(NASA( [300.0, 1000.0], [3.92542845E+00, -8.54013921E-04,
 		 2.18662316E-05, -2.32052624E-08, 7.94952514E-12,
 		 -8.09207515E+03, -1.02833904E+01]), 
		NASA( [1000.0, 2000.0], [9.65991695E+00, -1.03957767E-02,
 		 1.84158832E-05, -9.72601460E-09, 1.72790001E-12,
 		 -1.00310530E+04, -4.15665729E+01])))

species(name='CO2X',
        atoms='C:1 O:2 X:1',
        thermo=(NASA( [300.0, 1000.0], [2.62345902E+00, 1.15679727E-02,
 		 -1.38786761E-05, 9.51541740E-09, -2.77848088E-12,
 		 -4.78737563E+04, -3.74555303E+00]), 
		NASA( [1000.0, 2000.0], [7.03629499E+00, -2.92104480E-03,
 		 5.30369042E-06, -2.89846163E-09, 5.29213226E-13,
 		 -4.89942747E+04, -2.60194736E+01])))

species(name='H2OX',
        atoms='H:2 O:1 X:1',
        thermo=(NASA( [300.0, 1000.0], [4.20105160E+00, 2.18807769E-03,
 		 -8.05520847E-07, 1.13606525E-09, -5.93152075E-13,
 		 -3.35437599E+04, -1.22779947E+01]), 
		NASA( [1000.0, 2000.0], [6.11783432E+00, -3.54917420E-03,
 		 6.15523611E-06, -3.13969633E-09, 5.42321729E-13,
 		 -3.40703233E+04, -2.21204018E+01])))

species(name='HCXOH',
        atoms='C:1 H:2 O:1 X:1',
        thermo=(NASA( [300.0, 1000.0], [1.97351301E-01, 2.15659729E-02,
 		 -2.42750815E-05, 1.52474756E-08, -4.02484379E-12,
 		 -1.94955385E+04, 3.08049580E+00]), 
		NASA( [1000.0, 2000.0], [8.68939434E+00, -5.89286876E-03,
 		 1.05506228E-05, -5.65320756E-09, 1.01693374E-12,
 		 -2.16499135E+04, -3.98280198E+01])))


species(name='H2COX',
        atoms='C:1 H:2 O:1 X:1',
        thermo=(NASA( [300.0, 1000.0], [-1.45977031E-01, 2.64865489E-02,
 		 -3.22050283E-05, 2.11198341E-08, -5.65199939E-12,
 		 -1.91208675E+04, -7.98132683E-01]), 
		NASA( [1000.0, 2000.0], [9.58178173E+00, -6.24977777E-03,
 		 1.11866350E-05, -5.99264759E-09, 1.07738693E-12,
 		 -2.15121075E+04, -4.95994672E+01])))

species(name='CH2X',
        atoms='C:1 H:2 X:1',
        thermo=(NASA( [300.0, 1000.0], [-7.86194089E-01, 2.65260407E-02,
 		 -4.23210270E-05, 3.49956662E-08, -1.12709194E-11,
 		 4.44124518E+03, 1.06287680E+00]), 
		NASA( [1000.0, 2000.0], [7.11955834E+00, -4.73694032E-03,
 		 8.47698529E-06, -4.52759184E-09, 8.11554934E-13,
 		 2.69863213E+03, -3.75303507E+01])))

species(name = "CHO2X",
	atoms = " H:1 C:1 O:2 X:1",
	size = 1,
	thermo = (
		NASA( [300.0, 1000.0], [2.30061613E+00, 1.64316221E-02,
 		 -1.09842797E-05, 1.57013279E-09, 8.65462923E-13,
 		 -5.16462519E+04, -9.73137851E+00]), 
		NASA( [1000.0, 2000.0], [1.01659160E+01, -5.43124926E-03,
 		 9.83033199E-06, -5.35839434E-09, 9.76949932E-13,
 		 -5.38084856E+04, -5.03257423E+01])))

#-------------------------------------------------------------------------------
# Reaction data
#-------------------------------------------------------------------------------

